[root]
type=Root
children=system
eventq_index=0
full_system=false
sim_quantum=0
time_sync_enable=false
time_sync_period=100000000
time_sync_spin_threshold=100000

[system]
type=System
children=clk_domain cpu00 cpu01 cpu02 cpu03 cpu04 cpu05 cpu06 cpu07 cpu08 cpu09 cpu10 cpu11 dvfs_handler mem_ctrls00 mem_ctrls01 mem_ctrls02 mem_ctrls03 mem_ctrls04 mem_ctrls05 mem_ctrls06 mem_ctrls07 mem_ctrls08 mem_ctrls09 mem_ctrls10 mem_ctrls11 redirect_paths0 redirect_paths1 redirect_paths2 ruby sys_port_proxy voltage_domain
boot_osflags=a
cache_line_size=64
eventq_index=0
exit_on_work_items=false
init_param=0
kernel=
kernel_addr_check=true
kernel_extras=
kernel_extras_addrs=
load_addr_mask=18446744073709551615
load_offset=0
m5ops_base=0
mem_mode=timing
mem_ranges=0:536870912
memories=system.mem_ctrls00 system.mem_ctrls01 system.mem_ctrls02 system.mem_ctrls03 system.mem_ctrls04 system.mem_ctrls05 system.mem_ctrls06 system.mem_ctrls07 system.mem_ctrls08 system.mem_ctrls09 system.mem_ctrls10 system.mem_ctrls11
mmap_using_noreserve=false
multi_thread=false
num_work_ids=16
readfile=
redirect_paths=system.redirect_paths0 system.redirect_paths1 system.redirect_paths2
symbolfile=
thermal_components=
thermal_model=Null
work_begin_ckpt_count=0
work_begin_cpu_id_exit=-1
work_begin_exit_count=0
work_cpus_ckpt_count=0
work_end_ckpt_count=0
work_end_exit_count=0
work_item_id=-1
system_port=system.sys_port_proxy.slave[0]

[system.clk_domain]
type=SrcClockDomain
clock=1
domain_id=-1
eventq_index=0
init_perf_level=0
voltage_domain=system.voltage_domain

[system.cpu00]
type=GarnetSyntheticTraffic
block_offset=6
clk_domain=system.clk_domain
default_p_state=UNDEFINED
eventq_index=0
inj_rate=0.0
inj_vnet=2
memory_size=65536
num_dest=12
num_packets_max=-1
p_state_clk_gate_bins=20
p_state_clk_gate_max=1000000000
p_state_clk_gate_min=1
power_model=
precision=3
response_limit=5000000
sim_cycles=1000
single_dest=-1
single_sender=-1
system=system
traffic_type=uniform_random
test=system.ruby.l1_cntrl0.sequencer.slave[0]

[system.cpu01]
type=GarnetSyntheticTraffic
block_offset=6
clk_domain=system.clk_domain
default_p_state=UNDEFINED
eventq_index=0
inj_rate=0.0
inj_vnet=2
memory_size=65536
num_dest=12
num_packets_max=-1
p_state_clk_gate_bins=20
p_state_clk_gate_max=1000000000
p_state_clk_gate_min=1
power_model=
precision=3
response_limit=5000000
sim_cycles=1000
single_dest=-1
single_sender=-1
system=system
traffic_type=uniform_random
test=system.ruby.l1_cntrl1.sequencer.slave[0]

[system.cpu02]
type=GarnetSyntheticTraffic
block_offset=6
clk_domain=system.clk_domain
default_p_state=UNDEFINED
eventq_index=0
inj_rate=0.0
inj_vnet=2
memory_size=65536
num_dest=12
num_packets_max=-1
p_state_clk_gate_bins=20
p_state_clk_gate_max=1000000000
p_state_clk_gate_min=1
power_model=
precision=3
response_limit=5000000
sim_cycles=1000
single_dest=-1
single_sender=-1
system=system
traffic_type=uniform_random
test=system.ruby.l1_cntrl2.sequencer.slave[0]

[system.cpu03]
type=GarnetSyntheticTraffic
block_offset=6
clk_domain=system.clk_domain
default_p_state=UNDEFINED
eventq_index=0
inj_rate=0.0
inj_vnet=2
memory_size=65536
num_dest=12
num_packets_max=-1
p_state_clk_gate_bins=20
p_state_clk_gate_max=1000000000
p_state_clk_gate_min=1
power_model=
precision=3
response_limit=5000000
sim_cycles=1000
single_dest=-1
single_sender=-1
system=system
traffic_type=uniform_random
test=system.ruby.l1_cntrl3.sequencer.slave[0]

[system.cpu04]
type=GarnetSyntheticTraffic
block_offset=6
clk_domain=system.clk_domain
default_p_state=UNDEFINED
eventq_index=0
inj_rate=0.0
inj_vnet=2
memory_size=65536
num_dest=12
num_packets_max=-1
p_state_clk_gate_bins=20
p_state_clk_gate_max=1000000000
p_state_clk_gate_min=1
power_model=
precision=3
response_limit=5000000
sim_cycles=1000
single_dest=-1
single_sender=-1
system=system
traffic_type=uniform_random
test=system.ruby.l1_cntrl4.sequencer.slave[0]

[system.cpu05]
type=GarnetSyntheticTraffic
block_offset=6
clk_domain=system.clk_domain
default_p_state=UNDEFINED
eventq_index=0
inj_rate=0.0
inj_vnet=2
memory_size=65536
num_dest=12
num_packets_max=-1
p_state_clk_gate_bins=20
p_state_clk_gate_max=1000000000
p_state_clk_gate_min=1
power_model=
precision=3
response_limit=5000000
sim_cycles=1000
single_dest=-1
single_sender=-1
system=system
traffic_type=uniform_random
test=system.ruby.l1_cntrl5.sequencer.slave[0]

[system.cpu06]
type=GarnetSyntheticTraffic
block_offset=6
clk_domain=system.clk_domain
default_p_state=UNDEFINED
eventq_index=0
inj_rate=0.0
inj_vnet=2
memory_size=65536
num_dest=12
num_packets_max=-1
p_state_clk_gate_bins=20
p_state_clk_gate_max=1000000000
p_state_clk_gate_min=1
power_model=
precision=3
response_limit=5000000
sim_cycles=1000
single_dest=-1
single_sender=-1
system=system
traffic_type=uniform_random
test=system.ruby.l1_cntrl6.sequencer.slave[0]

[system.cpu07]
type=GarnetSyntheticTraffic
block_offset=6
clk_domain=system.clk_domain
default_p_state=UNDEFINED
eventq_index=0
inj_rate=0.0
inj_vnet=2
memory_size=65536
num_dest=12
num_packets_max=-1
p_state_clk_gate_bins=20
p_state_clk_gate_max=1000000000
p_state_clk_gate_min=1
power_model=
precision=3
response_limit=5000000
sim_cycles=1000
single_dest=-1
single_sender=-1
system=system
traffic_type=uniform_random
test=system.ruby.l1_cntrl7.sequencer.slave[0]

[system.cpu08]
type=GarnetSyntheticTraffic
block_offset=6
clk_domain=system.clk_domain
default_p_state=UNDEFINED
eventq_index=0
inj_rate=0.0
inj_vnet=2
memory_size=65536
num_dest=12
num_packets_max=-1
p_state_clk_gate_bins=20
p_state_clk_gate_max=1000000000
p_state_clk_gate_min=1
power_model=
precision=3
response_limit=5000000
sim_cycles=1000
single_dest=-1
single_sender=-1
system=system
traffic_type=uniform_random
test=system.ruby.l1_cntrl8.sequencer.slave[0]

[system.cpu09]
type=GarnetSyntheticTraffic
block_offset=6
clk_domain=system.clk_domain
default_p_state=UNDEFINED
eventq_index=0
inj_rate=0.0
inj_vnet=2
memory_size=65536
num_dest=12
num_packets_max=-1
p_state_clk_gate_bins=20
p_state_clk_gate_max=1000000000
p_state_clk_gate_min=1
power_model=
precision=3
response_limit=5000000
sim_cycles=1000
single_dest=-1
single_sender=-1
system=system
traffic_type=uniform_random
test=system.ruby.l1_cntrl9.sequencer.slave[0]

[system.cpu10]
type=GarnetSyntheticTraffic
block_offset=6
clk_domain=system.clk_domain
default_p_state=UNDEFINED
eventq_index=0
inj_rate=0.0
inj_vnet=2
memory_size=65536
num_dest=12
num_packets_max=-1
p_state_clk_gate_bins=20
p_state_clk_gate_max=1000000000
p_state_clk_gate_min=1
power_model=
precision=3
response_limit=5000000
sim_cycles=1000
single_dest=-1
single_sender=-1
system=system
traffic_type=uniform_random
test=system.ruby.l1_cntrl10.sequencer.slave[0]

[system.cpu11]
type=GarnetSyntheticTraffic
block_offset=6
clk_domain=system.clk_domain
default_p_state=UNDEFINED
eventq_index=0
inj_rate=0.0
inj_vnet=2
memory_size=65536
num_dest=12
num_packets_max=-1
p_state_clk_gate_bins=20
p_state_clk_gate_max=1000000000
p_state_clk_gate_min=1
power_model=
precision=3
response_limit=5000000
sim_cycles=1000
single_dest=-1
single_sender=-1
system=system
traffic_type=uniform_random
test=system.ruby.l1_cntrl11.sequencer.slave[0]

[system.dvfs_handler]
type=DVFSHandler
domains=
enable=false
eventq_index=0
sys_clk_domain=system.clk_domain
transition_latency=100000

[system.mem_ctrls00]
type=DRAMCtrl
IDD0=0.055
IDD02=0.0
IDD2N=0.032
IDD2N2=0.0
IDD2P0=0.0
IDD2P02=0.0
IDD2P1=0.032
IDD2P12=0.0
IDD3N=0.038
IDD3N2=0.0
IDD3P0=0.0
IDD3P02=0.0
IDD3P1=0.038
IDD3P12=0.0
IDD4R=0.157
IDD4R2=0.0
IDD4W=0.125
IDD4W2=0.0
IDD5=0.235
IDD52=0.0
IDD6=0.02
IDD62=0.0
VDD=1.5
VDD2=0.0
activation_limit=4
addr_mapping=RoRaBaCoCh
bank_groups_per_rank=0
banks_per_rank=8
burst_length=8
clk_domain=system.clk_domain
conf_table_reported=true
default_p_state=UNDEFINED
device_bus_width=8
device_rowbuffer_size=1024
device_size=536870912
devices_per_rank=8
dll=true
enable_dram_powerdown=false
eventq_index=0
in_addr_map=true
kvm_map=true
max_accesses_per_row=16
mem_sched_policy=frfcfs
min_writes_per_switch=16
null=false
p_state_clk_gate_bins=20
p_state_clk_gate_max=1000000000
p_state_clk_gate_min=1
page_policy=open_adaptive
power_model=
qos_masters=               
qos_policy=Null
qos_priorities=1
qos_priority_escalation=false
qos_q_policy=fifo
qos_syncro_scheduler=false
qos_turnaround_policy=Null
range=0:536870912:0:1048640:2097280:4194560
ranks_per_channel=2
read_buffer_size=32
static_backend_latency=10
static_frontend_latency=10
tBURST=5
tCCD_L=0
tCCD_L_WR=0
tCK=1
tCL=14
tCS=3
tRAS=35
tRCD=14
tREFI=7800
tRFC=260
tRP=14
tRRD=6
tRRD_L=0
tRTP=8
tRTW=3
tWR=15
tWTR=8
tXAW=30
tXP=6
tXPDLL=0
tXS=270
tXSDLL=0
write_buffer_size=64
write_high_thresh_perc=85
write_low_thresh_perc=50
port=system.ruby.dir_cntrl0.memory

[system.mem_ctrls01]
type=DRAMCtrl
IDD0=0.055
IDD02=0.0
IDD2N=0.032
IDD2N2=0.0
IDD2P0=0.0
IDD2P02=0.0
IDD2P1=0.032
IDD2P12=0.0
IDD3N=0.038
IDD3N2=0.0
IDD3P0=0.0
IDD3P02=0.0
IDD3P1=0.038
IDD3P12=0.0
IDD4R=0.157
IDD4R2=0.0
IDD4W=0.125
IDD4W2=0.0
IDD5=0.235
IDD52=0.0
IDD6=0.02
IDD62=0.0
VDD=1.5
VDD2=0.0
activation_limit=4
addr_mapping=RoRaBaCoCh
bank_groups_per_rank=0
banks_per_rank=8
burst_length=8
clk_domain=system.clk_domain
conf_table_reported=true
default_p_state=UNDEFINED
device_bus_width=8
device_rowbuffer_size=1024
device_size=536870912
devices_per_rank=8
dll=true
enable_dram_powerdown=false
eventq_index=0
in_addr_map=true
kvm_map=true
max_accesses_per_row=16
mem_sched_policy=frfcfs
min_writes_per_switch=16
null=false
p_state_clk_gate_bins=20
p_state_clk_gate_max=1000000000
p_state_clk_gate_min=1
page_policy=open_adaptive
power_model=
qos_masters=               
qos_policy=Null
qos_priorities=1
qos_priority_escalation=false
qos_q_policy=fifo
qos_syncro_scheduler=false
qos_turnaround_policy=Null
range=0:536870912:1:1048640:2097280:4194560
ranks_per_channel=2
read_buffer_size=32
static_backend_latency=10
static_frontend_latency=10
tBURST=5
tCCD_L=0
tCCD_L_WR=0
tCK=1
tCL=14
tCS=3
tRAS=35
tRCD=14
tREFI=7800
tRFC=260
tRP=14
tRRD=6
tRRD_L=0
tRTP=8
tRTW=3
tWR=15
tWTR=8
tXAW=30
tXP=6
tXPDLL=0
tXS=270
tXSDLL=0
write_buffer_size=64
write_high_thresh_perc=85
write_low_thresh_perc=50
port=system.ruby.dir_cntrl1.memory

[system.mem_ctrls02]
type=DRAMCtrl
IDD0=0.055
IDD02=0.0
IDD2N=0.032
IDD2N2=0.0
IDD2P0=0.0
IDD2P02=0.0
IDD2P1=0.032
IDD2P12=0.0
IDD3N=0.038
IDD3N2=0.0
IDD3P0=0.0
IDD3P02=0.0
IDD3P1=0.038
IDD3P12=0.0
IDD4R=0.157
IDD4R2=0.0
IDD4W=0.125
IDD4W2=0.0
IDD5=0.235
IDD52=0.0
IDD6=0.02
IDD62=0.0
VDD=1.5
VDD2=0.0
activation_limit=4
addr_mapping=RoRaBaCoCh
bank_groups_per_rank=0
banks_per_rank=8
burst_length=8
clk_domain=system.clk_domain
conf_table_reported=true
default_p_state=UNDEFINED
device_bus_width=8
device_rowbuffer_size=1024
device_size=536870912
devices_per_rank=8
dll=true
enable_dram_powerdown=false
eventq_index=0
in_addr_map=true
kvm_map=true
max_accesses_per_row=16
mem_sched_policy=frfcfs
min_writes_per_switch=16
null=false
p_state_clk_gate_bins=20
p_state_clk_gate_max=1000000000
p_state_clk_gate_min=1
page_policy=open_adaptive
power_model=
qos_masters=               
qos_policy=Null
qos_priorities=1
qos_priority_escalation=false
qos_q_policy=fifo
qos_syncro_scheduler=false
qos_turnaround_policy=Null
range=0:536870912:2:1048640:2097280:4194560
ranks_per_channel=2
read_buffer_size=32
static_backend_latency=10
static_frontend_latency=10
tBURST=5
tCCD_L=0
tCCD_L_WR=0
tCK=1
tCL=14
tCS=3
tRAS=35
tRCD=14
tREFI=7800
tRFC=260
tRP=14
tRRD=6
tRRD_L=0
tRTP=8
tRTW=3
tWR=15
tWTR=8
tXAW=30
tXP=6
tXPDLL=0
tXS=270
tXSDLL=0
write_buffer_size=64
write_high_thresh_perc=85
write_low_thresh_perc=50
port=system.ruby.dir_cntrl2.memory

[system.mem_ctrls03]
type=DRAMCtrl
IDD0=0.055
IDD02=0.0
IDD2N=0.032
IDD2N2=0.0
IDD2P0=0.0
IDD2P02=0.0
IDD2P1=0.032
IDD2P12=0.0
IDD3N=0.038
IDD3N2=0.0
IDD3P0=0.0
IDD3P02=0.0
IDD3P1=0.038
IDD3P12=0.0
IDD4R=0.157
IDD4R2=0.0
IDD4W=0.125
IDD4W2=0.0
IDD5=0.235
IDD52=0.0
IDD6=0.02
IDD62=0.0
VDD=1.5
VDD2=0.0
activation_limit=4
addr_mapping=RoRaBaCoCh
bank_groups_per_rank=0
banks_per_rank=8
burst_length=8
clk_domain=system.clk_domain
conf_table_reported=true
default_p_state=UNDEFINED
device_bus_width=8
device_rowbuffer_size=1024
device_size=536870912
devices_per_rank=8
dll=true
enable_dram_powerdown=false
eventq_index=0
in_addr_map=true
kvm_map=true
max_accesses_per_row=16
mem_sched_policy=frfcfs
min_writes_per_switch=16
null=false
p_state_clk_gate_bins=20
p_state_clk_gate_max=1000000000
p_state_clk_gate_min=1
page_policy=open_adaptive
power_model=
qos_masters=               
qos_policy=Null
qos_priorities=1
qos_priority_escalation=false
qos_q_policy=fifo
qos_syncro_scheduler=false
qos_turnaround_policy=Null
range=0:536870912:3:1048640:2097280:4194560
ranks_per_channel=2
read_buffer_size=32
static_backend_latency=10
static_frontend_latency=10
tBURST=5
tCCD_L=0
tCCD_L_WR=0
tCK=1
tCL=14
tCS=3
tRAS=35
tRCD=14
tREFI=7800
tRFC=260
tRP=14
tRRD=6
tRRD_L=0
tRTP=8
tRTW=3
tWR=15
tWTR=8
tXAW=30
tXP=6
tXPDLL=0
tXS=270
tXSDLL=0
write_buffer_size=64
write_high_thresh_perc=85
write_low_thresh_perc=50
port=system.ruby.dir_cntrl3.memory

[system.mem_ctrls04]
type=DRAMCtrl
IDD0=0.055
IDD02=0.0
IDD2N=0.032
IDD2N2=0.0
IDD2P0=0.0
IDD2P02=0.0
IDD2P1=0.032
IDD2P12=0.0
IDD3N=0.038
IDD3N2=0.0
IDD3P0=0.0
IDD3P02=0.0
IDD3P1=0.038
IDD3P12=0.0
IDD4R=0.157
IDD4R2=0.0
IDD4W=0.125
IDD4W2=0.0
IDD5=0.235
IDD52=0.0
IDD6=0.02
IDD62=0.0
VDD=1.5
VDD2=0.0
activation_limit=4
addr_mapping=RoRaBaCoCh
bank_groups_per_rank=0
banks_per_rank=8
burst_length=8
clk_domain=system.clk_domain
conf_table_reported=true
default_p_state=UNDEFINED
device_bus_width=8
device_rowbuffer_size=1024
device_size=536870912
devices_per_rank=8
dll=true
enable_dram_powerdown=false
eventq_index=0
in_addr_map=true
kvm_map=true
max_accesses_per_row=16
mem_sched_policy=frfcfs
min_writes_per_switch=16
null=false
p_state_clk_gate_bins=20
p_state_clk_gate_max=1000000000
p_state_clk_gate_min=1
page_policy=open_adaptive
power_model=
qos_masters=               
qos_policy=Null
qos_priorities=1
qos_priority_escalation=false
qos_q_policy=fifo
qos_syncro_scheduler=false
qos_turnaround_policy=Null
range=0:536870912:4:1048640:2097280:4194560
ranks_per_channel=2
read_buffer_size=32
static_backend_latency=10
static_frontend_latency=10
tBURST=5
tCCD_L=0
tCCD_L_WR=0
tCK=1
tCL=14
tCS=3
tRAS=35
tRCD=14
tREFI=7800
tRFC=260
tRP=14
tRRD=6
tRRD_L=0
tRTP=8
tRTW=3
tWR=15
tWTR=8
tXAW=30
tXP=6
tXPDLL=0
tXS=270
tXSDLL=0
write_buffer_size=64
write_high_thresh_perc=85
write_low_thresh_perc=50
port=system.ruby.dir_cntrl4.memory

[system.mem_ctrls05]
type=DRAMCtrl
IDD0=0.055
IDD02=0.0
IDD2N=0.032
IDD2N2=0.0
IDD2P0=0.0
IDD2P02=0.0
IDD2P1=0.032
IDD2P12=0.0
IDD3N=0.038
IDD3N2=0.0
IDD3P0=0.0
IDD3P02=0.0
IDD3P1=0.038
IDD3P12=0.0
IDD4R=0.157
IDD4R2=0.0
IDD4W=0.125
IDD4W2=0.0
IDD5=0.235
IDD52=0.0
IDD6=0.02
IDD62=0.0
VDD=1.5
VDD2=0.0
activation_limit=4
addr_mapping=RoRaBaCoCh
bank_groups_per_rank=0
banks_per_rank=8
burst_length=8
clk_domain=system.clk_domain
conf_table_reported=true
default_p_state=UNDEFINED
device_bus_width=8
device_rowbuffer_size=1024
device_size=536870912
devices_per_rank=8
dll=true
enable_dram_powerdown=false
eventq_index=0
in_addr_map=true
kvm_map=true
max_accesses_per_row=16
mem_sched_policy=frfcfs
min_writes_per_switch=16
null=false
p_state_clk_gate_bins=20
p_state_clk_gate_max=1000000000
p_state_clk_gate_min=1
page_policy=open_adaptive
power_model=
qos_masters=               
qos_policy=Null
qos_priorities=1
qos_priority_escalation=false
qos_q_policy=fifo
qos_syncro_scheduler=false
qos_turnaround_policy=Null
range=0:536870912:5:1048640:2097280:4194560
ranks_per_channel=2
read_buffer_size=32
static_backend_latency=10
static_frontend_latency=10
tBURST=5
tCCD_L=0
tCCD_L_WR=0
tCK=1
tCL=14
tCS=3
tRAS=35
tRCD=14
tREFI=7800
tRFC=260
tRP=14
tRRD=6
tRRD_L=0
tRTP=8
tRTW=3
tWR=15
tWTR=8
tXAW=30
tXP=6
tXPDLL=0
tXS=270
tXSDLL=0
write_buffer_size=64
write_high_thresh_perc=85
write_low_thresh_perc=50
port=system.ruby.dir_cntrl5.memory

[system.mem_ctrls06]
type=DRAMCtrl
IDD0=0.055
IDD02=0.0
IDD2N=0.032
IDD2N2=0.0
IDD2P0=0.0
IDD2P02=0.0
IDD2P1=0.032
IDD2P12=0.0
IDD3N=0.038
IDD3N2=0.0
IDD3P0=0.0
IDD3P02=0.0
IDD3P1=0.038
IDD3P12=0.0
IDD4R=0.157
IDD4R2=0.0
IDD4W=0.125
IDD4W2=0.0
IDD5=0.235
IDD52=0.0
IDD6=0.02
IDD62=0.0
VDD=1.5
VDD2=0.0
activation_limit=4
addr_mapping=RoRaBaCoCh
bank_groups_per_rank=0
banks_per_rank=8
burst_length=8
clk_domain=system.clk_domain
conf_table_reported=true
default_p_state=UNDEFINED
device_bus_width=8
device_rowbuffer_size=1024
device_size=536870912
devices_per_rank=8
dll=true
enable_dram_powerdown=false
eventq_index=0
in_addr_map=true
kvm_map=true
max_accesses_per_row=16
mem_sched_policy=frfcfs
min_writes_per_switch=16
null=false
p_state_clk_gate_bins=20
p_state_clk_gate_max=1000000000
p_state_clk_gate_min=1
page_policy=open_adaptive
power_model=
qos_masters=               
qos_policy=Null
qos_priorities=1
qos_priority_escalation=false
qos_q_policy=fifo
qos_syncro_scheduler=false
qos_turnaround_policy=Null
range=0:536870912:6:1048640:2097280:4194560
ranks_per_channel=2
read_buffer_size=32
static_backend_latency=10
static_frontend_latency=10
tBURST=5
tCCD_L=0
tCCD_L_WR=0
tCK=1
tCL=14
tCS=3
tRAS=35
tRCD=14
tREFI=7800
tRFC=260
tRP=14
tRRD=6
tRRD_L=0
tRTP=8
tRTW=3
tWR=15
tWTR=8
tXAW=30
tXP=6
tXPDLL=0
tXS=270
tXSDLL=0
write_buffer_size=64
write_high_thresh_perc=85
write_low_thresh_perc=50
port=system.ruby.dir_cntrl6.memory

[system.mem_ctrls07]
type=DRAMCtrl
IDD0=0.055
IDD02=0.0
IDD2N=0.032
IDD2N2=0.0
IDD2P0=0.0
IDD2P02=0.0
IDD2P1=0.032
IDD2P12=0.0
IDD3N=0.038
IDD3N2=0.0
IDD3P0=0.0
IDD3P02=0.0
IDD3P1=0.038
IDD3P12=0.0
IDD4R=0.157
IDD4R2=0.0
IDD4W=0.125
IDD4W2=0.0
IDD5=0.235
IDD52=0.0
IDD6=0.02
IDD62=0.0
VDD=1.5
VDD2=0.0
activation_limit=4
addr_mapping=RoRaBaCoCh
bank_groups_per_rank=0
banks_per_rank=8
burst_length=8
clk_domain=system.clk_domain
conf_table_reported=true
default_p_state=UNDEFINED
device_bus_width=8
device_rowbuffer_size=1024
device_size=536870912
devices_per_rank=8
dll=true
enable_dram_powerdown=false
eventq_index=0
in_addr_map=true
kvm_map=true
max_accesses_per_row=16
mem_sched_policy=frfcfs
min_writes_per_switch=16
null=false
p_state_clk_gate_bins=20
p_state_clk_gate_max=1000000000
p_state_clk_gate_min=1
page_policy=open_adaptive
power_model=
qos_masters=               
qos_policy=Null
qos_priorities=1
qos_priority_escalation=false
qos_q_policy=fifo
qos_syncro_scheduler=false
qos_turnaround_policy=Null
range=0:536870912:7:1048640:2097280:4194560
ranks_per_channel=2
read_buffer_size=32
static_backend_latency=10
static_frontend_latency=10
tBURST=5
tCCD_L=0
tCCD_L_WR=0
tCK=1
tCL=14
tCS=3
tRAS=35
tRCD=14
tREFI=7800
tRFC=260
tRP=14
tRRD=6
tRRD_L=0
tRTP=8
tRTW=3
tWR=15
tWTR=8
tXAW=30
tXP=6
tXPDLL=0
tXS=270
tXSDLL=0
write_buffer_size=64
write_high_thresh_perc=85
write_low_thresh_perc=50
port=system.ruby.dir_cntrl7.memory

[system.mem_ctrls08]
type=DRAMCtrl
IDD0=0.055
IDD02=0.0
IDD2N=0.032
IDD2N2=0.0
IDD2P0=0.0
IDD2P02=0.0
IDD2P1=0.032
IDD2P12=0.0
IDD3N=0.038
IDD3N2=0.0
IDD3P0=0.0
IDD3P02=0.0
IDD3P1=0.038
IDD3P12=0.0
IDD4R=0.157
IDD4R2=0.0
IDD4W=0.125
IDD4W2=0.0
IDD5=0.235
IDD52=0.0
IDD6=0.02
IDD62=0.0
VDD=1.5
VDD2=0.0
activation_limit=4
addr_mapping=RoRaBaCoCh
bank_groups_per_rank=0
banks_per_rank=8
burst_length=8
clk_domain=system.clk_domain
conf_table_reported=true
default_p_state=UNDEFINED
device_bus_width=8
device_rowbuffer_size=1024
device_size=536870912
devices_per_rank=8
dll=true
enable_dram_powerdown=false
eventq_index=0
in_addr_map=true
kvm_map=true
max_accesses_per_row=16
mem_sched_policy=frfcfs
min_writes_per_switch=16
null=false
p_state_clk_gate_bins=20
p_state_clk_gate_max=1000000000
p_state_clk_gate_min=1
page_policy=open_adaptive
power_model=
qos_masters=               
qos_policy=Null
qos_priorities=1
qos_priority_escalation=false
qos_q_policy=fifo
qos_syncro_scheduler=false
qos_turnaround_policy=Null
range=0:536870912:8:1048640:2097280:4194560
ranks_per_channel=2
read_buffer_size=32
static_backend_latency=10
static_frontend_latency=10
tBURST=5
tCCD_L=0
tCCD_L_WR=0
tCK=1
tCL=14
tCS=3
tRAS=35
tRCD=14
tREFI=7800
tRFC=260
tRP=14
tRRD=6
tRRD_L=0
tRTP=8
tRTW=3
tWR=15
tWTR=8
tXAW=30
tXP=6
tXPDLL=0
tXS=270
tXSDLL=0
write_buffer_size=64
write_high_thresh_perc=85
write_low_thresh_perc=50
port=system.ruby.dir_cntrl8.memory

[system.mem_ctrls09]
type=DRAMCtrl
IDD0=0.055
IDD02=0.0
IDD2N=0.032
IDD2N2=0.0
IDD2P0=0.0
IDD2P02=0.0
IDD2P1=0.032
IDD2P12=0.0
IDD3N=0.038
IDD3N2=0.0
IDD3P0=0.0
IDD3P02=0.0
IDD3P1=0.038
IDD3P12=0.0
IDD4R=0.157
IDD4R2=0.0
IDD4W=0.125
IDD4W2=0.0
IDD5=0.235
IDD52=0.0
IDD6=0.02
IDD62=0.0
VDD=1.5
VDD2=0.0
activation_limit=4
addr_mapping=RoRaBaCoCh
bank_groups_per_rank=0
banks_per_rank=8
burst_length=8
clk_domain=system.clk_domain
conf_table_reported=true
default_p_state=UNDEFINED
device_bus_width=8
device_rowbuffer_size=1024
device_size=536870912
devices_per_rank=8
dll=true
enable_dram_powerdown=false
eventq_index=0
in_addr_map=true
kvm_map=true
max_accesses_per_row=16
mem_sched_policy=frfcfs
min_writes_per_switch=16
null=false
p_state_clk_gate_bins=20
p_state_clk_gate_max=1000000000
p_state_clk_gate_min=1
page_policy=open_adaptive
power_model=
qos_masters=               
qos_policy=Null
qos_priorities=1
qos_priority_escalation=false
qos_q_policy=fifo
qos_syncro_scheduler=false
qos_turnaround_policy=Null
range=0:536870912:9:1048640:2097280:4194560
ranks_per_channel=2
read_buffer_size=32
static_backend_latency=10
static_frontend_latency=10
tBURST=5
tCCD_L=0
tCCD_L_WR=0
tCK=1
tCL=14
tCS=3
tRAS=35
tRCD=14
tREFI=7800
tRFC=260
tRP=14
tRRD=6
tRRD_L=0
tRTP=8
tRTW=3
tWR=15
tWTR=8
tXAW=30
tXP=6
tXPDLL=0
tXS=270
tXSDLL=0
write_buffer_size=64
write_high_thresh_perc=85
write_low_thresh_perc=50
port=system.ruby.dir_cntrl9.memory

[system.mem_ctrls10]
type=DRAMCtrl
IDD0=0.055
IDD02=0.0
IDD2N=0.032
IDD2N2=0.0
IDD2P0=0.0
IDD2P02=0.0
IDD2P1=0.032
IDD2P12=0.0
IDD3N=0.038
IDD3N2=0.0
IDD3P0=0.0
IDD3P02=0.0
IDD3P1=0.038
IDD3P12=0.0
IDD4R=0.157
IDD4R2=0.0
IDD4W=0.125
IDD4W2=0.0
IDD5=0.235
IDD52=0.0
IDD6=0.02
IDD62=0.0
VDD=1.5
VDD2=0.0
activation_limit=4
addr_mapping=RoRaBaCoCh
bank_groups_per_rank=0
banks_per_rank=8
burst_length=8
clk_domain=system.clk_domain
conf_table_reported=true
default_p_state=UNDEFINED
device_bus_width=8
device_rowbuffer_size=1024
device_size=536870912
devices_per_rank=8
dll=true
enable_dram_powerdown=false
eventq_index=0
in_addr_map=true
kvm_map=true
max_accesses_per_row=16
mem_sched_policy=frfcfs
min_writes_per_switch=16
null=false
p_state_clk_gate_bins=20
p_state_clk_gate_max=1000000000
p_state_clk_gate_min=1
page_policy=open_adaptive
power_model=
qos_masters=               
qos_policy=Null
qos_priorities=1
qos_priority_escalation=false
qos_q_policy=fifo
qos_syncro_scheduler=false
qos_turnaround_policy=Null
range=0:536870912:10:1048640:2097280:4194560
ranks_per_channel=2
read_buffer_size=32
static_backend_latency=10
static_frontend_latency=10
tBURST=5
tCCD_L=0
tCCD_L_WR=0
tCK=1
tCL=14
tCS=3
tRAS=35
tRCD=14
tREFI=7800
tRFC=260
tRP=14
tRRD=6
tRRD_L=0
tRTP=8
tRTW=3
tWR=15
tWTR=8
tXAW=30
tXP=6
tXPDLL=0
tXS=270
tXSDLL=0
write_buffer_size=64
write_high_thresh_perc=85
write_low_thresh_perc=50
port=system.ruby.dir_cntrl10.memory

[system.mem_ctrls11]
type=DRAMCtrl
IDD0=0.055
IDD02=0.0
IDD2N=0.032
IDD2N2=0.0
IDD2P0=0.0
IDD2P02=0.0
IDD2P1=0.032
IDD2P12=0.0
IDD3N=0.038
IDD3N2=0.0
IDD3P0=0.0
IDD3P02=0.0
IDD3P1=0.038
IDD3P12=0.0
IDD4R=0.157
IDD4R2=0.0
IDD4W=0.125
IDD4W2=0.0
IDD5=0.235
IDD52=0.0
IDD6=0.02
IDD62=0.0
VDD=1.5
VDD2=0.0
activation_limit=4
addr_mapping=RoRaBaCoCh
bank_groups_per_rank=0
banks_per_rank=8
burst_length=8
clk_domain=system.clk_domain
conf_table_reported=true
default_p_state=UNDEFINED
device_bus_width=8
device_rowbuffer_size=1024
device_size=536870912
devices_per_rank=8
dll=true
enable_dram_powerdown=false
eventq_index=0
in_addr_map=true
kvm_map=true
max_accesses_per_row=16
mem_sched_policy=frfcfs
min_writes_per_switch=16
null=false
p_state_clk_gate_bins=20
p_state_clk_gate_max=1000000000
p_state_clk_gate_min=1
page_policy=open_adaptive
power_model=
qos_masters=               
qos_policy=Null
qos_priorities=1
qos_priority_escalation=false
qos_q_policy=fifo
qos_syncro_scheduler=false
qos_turnaround_policy=Null
range=0:536870912:11:1048640:2097280:4194560
ranks_per_channel=2
read_buffer_size=32
static_backend_latency=10
static_frontend_latency=10
tBURST=5
tCCD_L=0
tCCD_L_WR=0
tCK=1
tCL=14
tCS=3
tRAS=35
tRCD=14
tREFI=7800
tRFC=260
tRP=14
tRRD=6
tRRD_L=0
tRTP=8
tRTW=3
tWR=15
tWTR=8
tXAW=30
tXP=6
tXPDLL=0
tXS=270
tXSDLL=0
write_buffer_size=64
write_high_thresh_perc=85
write_low_thresh_perc=50
port=system.ruby.dir_cntrl11.memory

[system.redirect_paths0]
type=RedirectPath
app_path=/proc
eventq_index=0
host_paths=hh/fs/proc

[system.redirect_paths1]
type=RedirectPath
app_path=/sys
eventq_index=0
host_paths=hh/fs/sys

[system.redirect_paths2]
type=RedirectPath
app_path=/tmp
eventq_index=0
host_paths=hh/fs/tmp

[system.ruby]
type=RubySystem
children=clk_domain dir_cntrl0 dir_cntrl1 dir_cntrl10 dir_cntrl11 dir_cntrl2 dir_cntrl3 dir_cntrl4 dir_cntrl5 dir_cntrl6 dir_cntrl7 dir_cntrl8 dir_cntrl9 l1_cntrl0 l1_cntrl1 l1_cntrl10 l1_cntrl11 l1_cntrl2 l1_cntrl3 l1_cntrl4 l1_cntrl5 l1_cntrl6 l1_cntrl7 l1_cntrl8 l1_cntrl9 network
access_backing_store=false
all_instructions=false
block_size_bytes=64
clk_domain=system.ruby.clk_domain
default_p_state=UNDEFINED
eventq_index=0
hot_lines=false
memory_size_bits=48
num_of_sequencers=12
number_of_virtual_networks=3
p_state_clk_gate_bins=20
p_state_clk_gate_max=1000000000
p_state_clk_gate_min=1
phys_mem=Null
power_model=
randomization=false

[system.ruby.clk_domain]
type=SrcClockDomain
clock=1
domain_id=-1
eventq_index=0
init_perf_level=0
voltage_domain=system.voltage_domain

[system.ruby.dir_cntrl0]
type=Directory_Controller
children=directory forwardToDir requestToDir responseToDir
addr_ranges=0:536870912:0:1048640:2097280:4194560
buffer_size=0
clk_domain=system.ruby.clk_domain
cluster_id=0
default_p_state=UNDEFINED
eventq_index=0
forwardToDir=system.ruby.dir_cntrl0.forwardToDir
mandatory_queue_latency=1
number_of_TBEs=256
p_state_clk_gate_bins=20
p_state_clk_gate_max=1000000000
p_state_clk_gate_min=1
power_model=
recycle_latency=10
requestToDir=system.ruby.dir_cntrl0.requestToDir
responseToDir=system.ruby.dir_cntrl0.responseToDir
ruby_system=system.ruby
system=system
transitions_per_cycle=32
version=0
memory=system.mem_ctrls00.port

[system.ruby.dir_cntrl0.directory]
type=RubyDirectoryMemory
addr_ranges=0:536870912:0:1048640:2097280:4194560
eventq_index=0

[system.ruby.dir_cntrl0.forwardToDir]
type=MessageBuffer
buffer_size=0
eventq_index=0
ordered=false
randomization=false

[system.ruby.dir_cntrl0.requestToDir]
type=MessageBuffer
buffer_size=0
eventq_index=0
ordered=false
randomization=false

[system.ruby.dir_cntrl0.responseToDir]
type=MessageBuffer
buffer_size=0
eventq_index=0
ordered=false
randomization=false

[system.ruby.dir_cntrl1]
type=Directory_Controller
children=directory forwardToDir requestToDir responseToDir
addr_ranges=0:536870912:1:1048640:2097280:4194560
buffer_size=0
clk_domain=system.ruby.clk_domain
cluster_id=0
default_p_state=UNDEFINED
eventq_index=0
forwardToDir=system.ruby.dir_cntrl1.forwardToDir
mandatory_queue_latency=1
number_of_TBEs=256
p_state_clk_gate_bins=20
p_state_clk_gate_max=1000000000
p_state_clk_gate_min=1
power_model=
recycle_latency=10
requestToDir=system.ruby.dir_cntrl1.requestToDir
responseToDir=system.ruby.dir_cntrl1.responseToDir
ruby_system=system.ruby
system=system
transitions_per_cycle=32
version=1
memory=system.mem_ctrls01.port

[system.ruby.dir_cntrl1.directory]
type=RubyDirectoryMemory
addr_ranges=0:536870912:1:1048640:2097280:4194560
eventq_index=0

[system.ruby.dir_cntrl1.forwardToDir]
type=MessageBuffer
buffer_size=0
eventq_index=0
ordered=false
randomization=false

[system.ruby.dir_cntrl1.requestToDir]
type=MessageBuffer
buffer_size=0
eventq_index=0
ordered=false
randomization=false

[system.ruby.dir_cntrl1.responseToDir]
type=MessageBuffer
buffer_size=0
eventq_index=0
ordered=false
randomization=false

[system.ruby.dir_cntrl10]
type=Directory_Controller
children=directory forwardToDir requestToDir responseToDir
addr_ranges=0:536870912:10:1048640:2097280:4194560
buffer_size=0
clk_domain=system.ruby.clk_domain
cluster_id=0
default_p_state=UNDEFINED
eventq_index=0
forwardToDir=system.ruby.dir_cntrl10.forwardToDir
mandatory_queue_latency=1
number_of_TBEs=256
p_state_clk_gate_bins=20
p_state_clk_gate_max=1000000000
p_state_clk_gate_min=1
power_model=
recycle_latency=10
requestToDir=system.ruby.dir_cntrl10.requestToDir
responseToDir=system.ruby.dir_cntrl10.responseToDir
ruby_system=system.ruby
system=system
transitions_per_cycle=32
version=10
memory=system.mem_ctrls10.port

[system.ruby.dir_cntrl10.directory]
type=RubyDirectoryMemory
addr_ranges=0:536870912:10:1048640:2097280:4194560
eventq_index=0

[system.ruby.dir_cntrl10.forwardToDir]
type=MessageBuffer
buffer_size=0
eventq_index=0
ordered=false
randomization=false

[system.ruby.dir_cntrl10.requestToDir]
type=MessageBuffer
buffer_size=0
eventq_index=0
ordered=false
randomization=false

[system.ruby.dir_cntrl10.responseToDir]
type=MessageBuffer
buffer_size=0
eventq_index=0
ordered=false
randomization=false

[system.ruby.dir_cntrl11]
type=Directory_Controller
children=directory forwardToDir requestToDir responseToDir
addr_ranges=0:536870912:11:1048640:2097280:4194560
buffer_size=0
clk_domain=system.ruby.clk_domain
cluster_id=0
default_p_state=UNDEFINED
eventq_index=0
forwardToDir=system.ruby.dir_cntrl11.forwardToDir
mandatory_queue_latency=1
number_of_TBEs=256
p_state_clk_gate_bins=20
p_state_clk_gate_max=1000000000
p_state_clk_gate_min=1
power_model=
recycle_latency=10
requestToDir=system.ruby.dir_cntrl11.requestToDir
responseToDir=system.ruby.dir_cntrl11.responseToDir
ruby_system=system.ruby
system=system
transitions_per_cycle=32
version=11
memory=system.mem_ctrls11.port

[system.ruby.dir_cntrl11.directory]
type=RubyDirectoryMemory
addr_ranges=0:536870912:11:1048640:2097280:4194560
eventq_index=0

[system.ruby.dir_cntrl11.forwardToDir]
type=MessageBuffer
buffer_size=0